[General]
network = src.dtnsim
repeat = 1
dtnsim.node[*].dtn.sdrSize = 1024 # 0 = inf
sim-time-limit = 86400s
dtnsim.nodesNumber = 7
dtnsim.node[1..5].icon = "device"
dtnsim.node[6].icon = "satellite"
dtnsim.node[7].icon = "device"
dtnsim.node[*].dtn.routing = "cgrModelRev17"
dtnsim.central.contactsFile = "/home/omn/git/dtnsim/simulations/dtnsim_demo/contactPlan/cPlan.txt"
dtnsim.node[*].dtn.routingType = "routeListType:allPaths-firstEnding,volumeAware:allContacts,extensionBlock:on,contactPlan:global"
dtnsim.node[*].dtn.printRoutingDebug = true
dtnsim.node[1].app.enable = true
dtnsim.node[1].app.bundlesNumber = "1, 1"
dtnsim.node[1].app.start = "18001, 45001"
dtnsim.node[1].app.destinationEid = "7, 7"
dtnsim.node[1].app.size = "128, 128"
dtnsim.node[2].app.enable = true
dtnsim.node[2].app.bundlesNumber = "1, 1, 1, 1"
dtnsim.node[2].app.start = "28801, 43201, 52201, 75601"
dtnsim.node[2].app.destinationEid = "7, 7, 7, 7"
dtnsim.node[2].app.size = "128, 128, 128, 128"
dtnsim.node[3].app.enable = true
dtnsim.node[3].app.bundlesNumber = "1, 1, 1, 1, 1, 1, 41, 1, 1, 1, 1"
dtnsim.node[3].app.start = "9001, 10801, 14401, 21601, 23401, 25201, 36001, 46801, 55801, 61201, 73801"
dtnsim.node[3].app.destinationEid = "7, 7, 7, 7, 7, 7, 7, 7, 7, 7, 7"
dtnsim.node[3].app.size = "128, 128, 128, 128, 128, 128, 128, 128, 128, 128, 128"
dtnsim.node[4].app.enable = true
dtnsim.node[4].app.bundlesNumber = "1, 1, 1, 1, 1, 1, 1, 1, 1, 1, 1, 1, 1, 1"
dtnsim.node[4].app.start = "1, 5401, 12601, 16201, 19801, 27001, 32401, 34201, 37801, 39601, 50401, 64801, 70201, 81001"
dtnsim.node[4].app.destinationEid = "7, 7, 7, 7, 7, 7, 7, 7, 7, 7, 7, 7, 7, 7"
dtnsim.node[4].app.size = "128, 128, 128, 128, 128, 128, 128, 128, 128, 128, 128, 128, 128, 128"
dtnsim.node[5].app.enable = true
dtnsim.node[5].app.bundlesNumber = "1, 1, 1, 1, 1, 1, 1, 1, 1, 1"
dtnsim.node[5].app.start = "1801, 30601, 41401, 48601, 57601, 59401, 63001, 66601, 68401, 79201"
dtnsim.node[5].app.destinationEid = "7, 7, 7, 7, 7, 7, 7, 7, 7, 7"
dtnsim.node[5].app.size = "128, 128, 128, 128, 128, 128, 128, 128, 128, 128"
dtnsim.node[6].app.enable = true
dtnsim.node[6].app.bundlesNumber = "1, 1, 1, 1, 1, 1, 1"
dtnsim.node[6].app.start = "3601, 7201, 54001, 72001, 77401, 82801, 84601"
dtnsim.node[6].app.destinationEid = "7, 7, 7, 7, 7, 7, 7"
dtnsim.node[6].app.size = "128, 128, 128, 128, 128, 128, 128"

