[General]
network = src.dtnsim
repeat = 1
dtnsim.node[*].dtn.sdrSize = 1024 # 0 = inf
sim-time-limit = 86400s
dtnsim.nodesNumber = 7
dtnsim.node[1..5].icon = "device"
dtnsim.node[6].icon = "satellite"
dtnsim.node[7].icon = "device"
dtnsim.node[*].dtn.routing = "cgrModelRev17"
dtnsim.central.contactsFile = "/home/omn/git/dtnsim/simulations/dtnsim_demo/contactPlan/cPlan.txt"
dtnsim.node[*].dtn.routingType = "routeListType:allPaths-firstEnding,volumeAware:allContacts,extensionBlock:on,contactPlan:global"
dtnsim.node[*].dtn.printRoutingDebug = true
dtnsim.node[1].app.enable = true
dtnsim.node[1].app.bundlesNumber = "3, 3, 3, 1"
dtnsim.node[1].app.start = "41401, 72001, 73801, 77401"
dtnsim.node[1].app.destinationEid = "7, 7, 7, 7"
dtnsim.node[1].app.size = "128, 128, 128, 128"
dtnsim.node[2].app.enable = true
dtnsim.node[2].app.bundlesNumber = "2, 1, 3, 3, 1, 2, 1, 2"
dtnsim.node[2].app.start = "5401, 14401, 28801, 63001, 68401, 75601, 79201, 82801"
dtnsim.node[2].app.destinationEid = "7, 7, 7, 7, 7, 7, 7, 7"
dtnsim.node[2].app.size = "128, 128, 128, 128, 128, 128, 128, 128"
dtnsim.node[3].app.enable = true
dtnsim.node[3].app.bundlesNumber = "1, 2, 2, 2, 1, 1"
dtnsim.node[3].app.start = "30601, 36001, 43201, 52201, 57601, 66601"
dtnsim.node[3].app.destinationEid = "7, 7, 7, 7, 7, 7"
dtnsim.node[3].app.size = "128, 128, 128, 128, 128, 128"
dtnsim.node[4].app.enable = true
dtnsim.node[4].app.bundlesNumber = "1, 3, 2, 1, 1, 3, 2, 1, 3, 78"
dtnsim.node[4].app.start = "1, 7201, 16201, 18001, 21601, 34201, 55801, 59401, 64801, 70201"
dtnsim.node[4].app.destinationEid = "7, 7, 7, 7, 7, 7, 7, 7, 7, 7"
dtnsim.node[4].app.size = "128, 128, 128, 128, 128, 128, 128, 128, 128, 128"
dtnsim.node[5].app.enable = true
dtnsim.node[5].app.bundlesNumber = "2, 1, 3, 2, 3, 2, 2, 2, 1, 2"
dtnsim.node[5].app.start = "9001, 10801, 25201, 32401, 37801, 39601, 45001, 48601, 50401, 81001"
dtnsim.node[5].app.destinationEid = "7, 7, 7, 7, 7, 7, 7, 7, 7, 7"
dtnsim.node[5].app.size = "128, 128, 128, 128, 128, 128, 128, 128, 128, 128"
dtnsim.node[6].app.enable = true
dtnsim.node[6].app.bundlesNumber = "2, 2, 1, 3, 3, 2, 2, 2, 1, 1"
dtnsim.node[6].app.start = "1801, 3601, 12601, 19801, 23401, 27001, 46801, 54001, 61201, 84601"
dtnsim.node[6].app.destinationEid = "7, 7, 7, 7, 7, 7, 7, 7, 7, 7"
dtnsim.node[6].app.size = "128, 128, 128, 128, 128, 128, 128, 128, 128, 128"

