[General]
network = src.dtnsim
repeat = 1
dtnsim.node[*].dtn.sdrSize = 1024 # 0 = inf
sim-time-limit = 86400s
dtnsim.nodesNumber = 7
dtnsim.node[1..5].icon = "device"
dtnsim.node[6].icon = "satellite"
dtnsim.node[7].icon = "device"
dtnsim.node[*].dtn.routing = "cgrModelRev17"
dtnsim.central.contactsFile = "/home/omn/git/dtnsim/simulations/dtnsim_demo/contactPlan/cPlan.txt"
dtnsim.node[*].dtn.routingType = "routeListType:allPaths-firstEnding,volumeAware:allContacts,extensionBlock:on,contactPlan:global"
dtnsim.node[*].dtn.printRoutingDebug = true
dtnsim.node[1].app.enable = true
dtnsim.node[1].app.bundlesNumber = "3, 4, 2, 2, 2, 3, 148, 1, 5, 1, 4, 2, 1, 2, 1"
dtnsim.node[1].app.start = "1, 1801, 5401, 23401, 34201, 43201, 45001, 48601, 52201, 55801, 57601, 61201, 68401, 72001, 75601"
dtnsim.node[1].app.destinationEid = "7, 7, 7, 7, 7, 7, 7, 7, 7, 7, 7, 7, 7, 7, 7"
dtnsim.node[1].app.size = "128, 128, 128, 128, 128, 128, 128, 128, 128, 128, 128, 128, 128, 128, 128"
dtnsim.node[2].app.enable = true
dtnsim.node[2].app.bundlesNumber = "3, 5, 1, 4, 4, 4, 3, 1, 2"
dtnsim.node[2].app.start = "27001, 28801, 36001, 37801, 46801, 50401, 70201, 79201, 84601"
dtnsim.node[2].app.destinationEid = "7, 7, 7, 7, 7, 7, 7, 7, 7"
dtnsim.node[2].app.size = "128, 128, 128, 128, 128, 128, 128, 128, 128"
dtnsim.node[3].app.enable = true
dtnsim.node[3].app.bundlesNumber = "2, 4, 1"
dtnsim.node[3].app.start = "7201, 16201, 63001"
dtnsim.node[3].app.destinationEid = "7, 7, 7"
dtnsim.node[3].app.size = "128, 128, 128"
dtnsim.node[4].app.enable = true
dtnsim.node[4].app.bundlesNumber = "1, 1, 1, 2, 5"
dtnsim.node[4].app.start = "3601, 14401, 19801, 30601, 59401"
dtnsim.node[4].app.destinationEid = "7, 7, 7, 7, 7"
dtnsim.node[4].app.size = "128, 128, 128, 128, 128"
dtnsim.node[5].app.enable = true
dtnsim.node[5].app.bundlesNumber = "5, 2, 4, 3, 4, 1"
dtnsim.node[5].app.start = "9001, 12601, 25201, 32401, 39601, 81001"
dtnsim.node[5].app.destinationEid = "7, 7, 7, 7, 7, 7"
dtnsim.node[5].app.size = "128, 128, 128, 128, 128, 128"
dtnsim.node[6].app.enable = true
dtnsim.node[6].app.bundlesNumber = "1, 5, 1, 4, 1, 3, 1, 5, 2, 5"
dtnsim.node[6].app.start = "10801, 18001, 21601, 41401, 54001, 64801, 66601, 73801, 77401, 82801"
dtnsim.node[6].app.destinationEid = "7, 7, 7, 7, 7, 7, 7, 7, 7, 7"
dtnsim.node[6].app.size = "128, 128, 128, 128, 128, 128, 128, 128, 128, 128"

