[General]
network = src.dtnsim
repeat = 1
dtnsim.node[*].dtn.sdrSize = 1024 # 0 = inf
sim-time-limit = 86400s
dtnsim.nodesNumber = 7
dtnsim.node[1..5].icon = "device"
dtnsim.node[6].icon = "satellite"
dtnsim.node[7].icon = "device"
dtnsim.node[*].dtn.routing = "cgrModelRev17"
dtnsim.central.contactsFile = "/home/omn/git/dtnsim/simulations/dtnsim_demo/contactPlan/cPlan.txt"
dtnsim.node[*].dtn.routingType = "routeListType:allPaths-firstEnding,volumeAware:allContacts,extensionBlock:on,contactPlan:global"
dtnsim.node[*].dtn.printRoutingDebug = true
dtnsim.node[1].app.enable = true
dtnsim.node[1].app.bundlesNumber = "1, 4, 1, 3, 3, 4"
dtnsim.node[1].app.start = "18001, 25201, 41401, 63001, 72001, 75601"
dtnsim.node[1].app.destinationEid = "7, 7, 7, 7, 7, 7"
dtnsim.node[1].app.size = "128, 128, 128, 128, 128, 128"
dtnsim.node[2].app.enable = true
dtnsim.node[2].app.bundlesNumber = "1, 1, 2, 4, 3, 2, 1, 3, 3, 2"
dtnsim.node[2].app.start = "1, 14401, 16201, 37801, 46801, 64801, 68401, 73801, 79201, 81001"
dtnsim.node[2].app.destinationEid = "7, 7, 7, 7, 7, 7, 7, 7, 7, 7"
dtnsim.node[2].app.size = "128, 128, 128, 128, 128, 128, 128, 128, 128, 128"
dtnsim.node[3].app.enable = true
dtnsim.node[3].app.bundlesNumber = "1, 2, 3, 2, 2, 1, 2, 1, 1, 1, 1, 2"
dtnsim.node[3].app.start = "7201, 10801, 23401, 27001, 34201, 39601, 54001, 57601, 59401, 61201, 82801, 84601"
dtnsim.node[3].app.destinationEid = "7, 7, 7, 7, 7, 7, 7, 7, 7, 7, 7, 7"
dtnsim.node[3].app.size = "128, 128, 128, 128, 128, 128, 128, 128, 128, 128, 128, 128"
dtnsim.node[4].app.enable = true
dtnsim.node[4].app.bundlesNumber = "2, 4, 4, 4, 3, 1, 3, 2, 2"
dtnsim.node[4].app.start = "9001, 19801, 21601, 30601, 45001, 48601, 50401, 66601, 70201"
dtnsim.node[4].app.destinationEid = "7, 7, 7, 7, 7, 7, 7, 7, 7"
dtnsim.node[4].app.size = "128, 128, 128, 128, 128, 128, 128, 128, 128"
dtnsim.node[5].app.enable = true
dtnsim.node[5].app.bundlesNumber = "4, 3, 1, 1, 2"
dtnsim.node[5].app.start = "3601, 12601, 36001, 43201, 55801"
dtnsim.node[5].app.destinationEid = "7, 7, 7, 7, 7"
dtnsim.node[5].app.size = "128, 128, 128, 128, 128"
dtnsim.node[6].app.enable = true
dtnsim.node[6].app.bundlesNumber = "3, 2, 92, 4, 4, 2"
dtnsim.node[6].app.start = "1801, 5401, 28801, 32401, 52201, 77401"
dtnsim.node[6].app.destinationEid = "7, 7, 7, 7, 7, 7"
dtnsim.node[6].app.size = "128, 128, 128, 128, 128, 128"

