[General]
network = src.dtnsim
repeat = 1
dtnsim.node[*].dtn.sdrSize = 1024 # 0 = inf
sim-time-limit = 86400s
dtnsim.nodesNumber = 7
dtnsim.node[1..5].icon = "device"
dtnsim.node[6].icon = "satellite"
dtnsim.node[7].icon = "device"
dtnsim.node[*].dtn.routing = "cgrModelRev17"
dtnsim.central.contactsFile = "/home/omn/git/dtnsim/simulations/dtnsim_demo/contactPlan/cPlan.txt"
dtnsim.node[*].dtn.routingType = "routeListType:allPaths-firstEnding,volumeAware:allContacts,extensionBlock:on,contactPlan:global"
dtnsim.node[*].dtn.printRoutingDebug = true
dtnsim.node[1].app.enable = true
dtnsim.node[1].app.bundlesNumber = "4, 5, 1, 1, 5, 1, 5, 2"
dtnsim.node[1].app.start = "7201, 10801, 34201, 43201, 64801, 68401, 70201, 75601"
dtnsim.node[1].app.destinationEid = "7, 7, 7, 7, 7, 7, 7, 7"
dtnsim.node[1].app.size = "128, 128, 128, 128, 128, 128, 128, 128"
dtnsim.node[2].app.enable = true
dtnsim.node[2].app.bundlesNumber = "1, 3, 2, 4, 2, 4, 5, 4, 1, 4"
dtnsim.node[2].app.start = "23401, 45001, 48601, 50401, 55801, 57601, 59401, 72001, 77401, 82801"
dtnsim.node[2].app.destinationEid = "7, 7, 7, 7, 7, 7, 7, 7, 7, 7"
dtnsim.node[2].app.size = "128, 128, 128, 128, 128, 128, 128, 128, 128, 128"
dtnsim.node[3].app.enable = true
dtnsim.node[3].app.bundlesNumber = "1, 5, 4, 3, 4"
dtnsim.node[3].app.start = "12601, 19801, 36001, 61201, 66601"
dtnsim.node[3].app.destinationEid = "7, 7, 7, 7, 7"
dtnsim.node[3].app.size = "128, 128, 128, 128, 128"
dtnsim.node[4].app.enable = true
dtnsim.node[4].app.bundlesNumber = "2, 4, 136, 4, 3, 1, 3, 2, 5, 1, 4"
dtnsim.node[4].app.start = "1801, 5401, 9001, 21601, 25201, 27001, 28801, 37801, 39601, 41401, 73801"
dtnsim.node[4].app.destinationEid = "7, 7, 7, 7, 7, 7, 7, 7, 7, 7, 7"
dtnsim.node[4].app.size = "128, 128, 128, 128, 128, 128, 128, 128, 128, 128, 128"
dtnsim.node[5].app.enable = true
dtnsim.node[5].app.bundlesNumber = "2, 1, 3, 1, 3, 4, 3, 1, 4"
dtnsim.node[5].app.start = "1, 3601, 14401, 32401, 46801, 52201, 54001, 79201, 81001"
dtnsim.node[5].app.destinationEid = "7, 7, 7, 7, 7, 7, 7, 7, 7"
dtnsim.node[5].app.size = "128, 128, 128, 128, 128, 128, 128, 128, 128"
dtnsim.node[6].app.enable = true
dtnsim.node[6].app.bundlesNumber = "4, 3, 2, 3, 2"
dtnsim.node[6].app.start = "16201, 18001, 30601, 63001, 84601"
dtnsim.node[6].app.destinationEid = "7, 7, 7, 7, 7"
dtnsim.node[6].app.size = "128, 128, 128, 128, 128"

